*SPEF "ieee 1481-1999"
*DESIGN "wrapped_mbsFSK"
*DATE "11:11:11 Fri 11 11, 1111"
*VENDOR "OpenRCX"
*PROGRAM "Parallel Extraction"
*VERSION "1.0"
*DESIGN_FLOW "NAME_SCOPE LOCAL" "PIN_CAP NONE"
*DIVIDER /
*DELIMITER :
*BUS_DELIMITER []
*T_UNIT 1 NS
*C_UNIT 1 PF
*R_UNIT 1 OHM
*L_UNIT 1 HENRY

*NAME_MAP
*1 active
*2 io_in[0]
*3 io_in[10]
*4 io_in[11]
*5 io_in[12]
*6 io_in[13]
*7 io_in[14]
*8 io_in[15]
*9 io_in[16]
*10 io_in[17]
*11 io_in[18]
*12 io_in[19]
*13 io_in[1]
*14 io_in[20]
*15 io_in[21]
*16 io_in[22]
*17 io_in[23]
*18 io_in[24]
*19 io_in[25]
*20 io_in[26]
*21 io_in[27]
*22 io_in[28]
*23 io_in[29]
*24 io_in[2]
*25 io_in[30]
*26 io_in[31]
*27 io_in[32]
*28 io_in[33]
*29 io_in[34]
*30 io_in[35]
*31 io_in[36]
*32 io_in[37]
*33 io_in[3]
*34 io_in[4]
*35 io_in[5]
*36 io_in[6]
*37 io_in[7]
*38 io_in[8]
*39 io_in[9]
*40 io_oeb[0]
*41 io_oeb[10]
*42 io_oeb[11]
*43 io_oeb[12]
*44 io_oeb[13]
*45 io_oeb[14]
*46 io_oeb[15]
*47 io_oeb[16]
*48 io_oeb[17]
*49 io_oeb[18]
*50 io_oeb[19]
*51 io_oeb[1]
*52 io_oeb[20]
*53 io_oeb[21]
*54 io_oeb[22]
*55 io_oeb[23]
*56 io_oeb[24]
*57 io_oeb[25]
*58 io_oeb[26]
*59 io_oeb[27]
*60 io_oeb[28]
*61 io_oeb[29]
*62 io_oeb[2]
*63 io_oeb[30]
*64 io_oeb[31]
*65 io_oeb[32]
*66 io_oeb[33]
*67 io_oeb[34]
*68 io_oeb[35]
*69 io_oeb[36]
*70 io_oeb[37]
*71 io_oeb[3]
*72 io_oeb[4]
*73 io_oeb[5]
*74 io_oeb[6]
*75 io_oeb[7]
*76 io_oeb[8]
*77 io_oeb[9]
*78 io_out[0]
*79 io_out[10]
*80 io_out[11]
*81 io_out[12]
*82 io_out[13]
*83 io_out[14]
*84 io_out[15]
*85 io_out[16]
*86 io_out[17]
*87 io_out[18]
*88 io_out[19]
*89 io_out[1]
*90 io_out[20]
*91 io_out[21]
*92 io_out[22]
*93 io_out[23]
*94 io_out[24]
*95 io_out[25]
*96 io_out[26]
*97 io_out[27]
*98 io_out[28]
*99 io_out[29]
*100 io_out[2]
*101 io_out[30]
*102 io_out[31]
*103 io_out[32]
*104 io_out[33]
*105 io_out[34]
*106 io_out[35]
*107 io_out[36]
*108 io_out[37]
*109 io_out[3]
*110 io_out[4]
*111 io_out[5]
*112 io_out[6]
*113 io_out[7]
*114 io_out[8]
*115 io_out[9]
*116 la1_data_in[0]
*117 la1_data_in[10]
*118 la1_data_in[11]
*119 la1_data_in[12]
*120 la1_data_in[13]
*121 la1_data_in[14]
*122 la1_data_in[15]
*123 la1_data_in[16]
*124 la1_data_in[17]
*125 la1_data_in[18]
*126 la1_data_in[19]
*127 la1_data_in[1]
*128 la1_data_in[20]
*129 la1_data_in[21]
*130 la1_data_in[22]
*131 la1_data_in[23]
*132 la1_data_in[24]
*133 la1_data_in[25]
*134 la1_data_in[26]
*135 la1_data_in[27]
*136 la1_data_in[28]
*137 la1_data_in[29]
*138 la1_data_in[2]
*139 la1_data_in[30]
*140 la1_data_in[31]
*141 la1_data_in[3]
*142 la1_data_in[4]
*143 la1_data_in[5]
*144 la1_data_in[6]
*145 la1_data_in[7]
*146 la1_data_in[8]
*147 la1_data_in[9]
*148 la1_data_out[0]
*149 la1_data_out[10]
*150 la1_data_out[11]
*151 la1_data_out[12]
*152 la1_data_out[13]
*153 la1_data_out[14]
*154 la1_data_out[15]
*155 la1_data_out[16]
*156 la1_data_out[17]
*157 la1_data_out[18]
*158 la1_data_out[19]
*159 la1_data_out[1]
*160 la1_data_out[20]
*161 la1_data_out[21]
*162 la1_data_out[22]
*163 la1_data_out[23]
*164 la1_data_out[24]
*165 la1_data_out[25]
*166 la1_data_out[26]
*167 la1_data_out[27]
*168 la1_data_out[28]
*169 la1_data_out[29]
*170 la1_data_out[2]
*171 la1_data_out[30]
*172 la1_data_out[31]
*173 la1_data_out[3]
*174 la1_data_out[4]
*175 la1_data_out[5]
*176 la1_data_out[6]
*177 la1_data_out[7]
*178 la1_data_out[8]
*179 la1_data_out[9]
*180 la1_oenb[0]
*181 la1_oenb[10]
*182 la1_oenb[11]
*183 la1_oenb[12]
*184 la1_oenb[13]
*185 la1_oenb[14]
*186 la1_oenb[15]
*187 la1_oenb[16]
*188 la1_oenb[17]
*189 la1_oenb[18]
*190 la1_oenb[19]
*191 la1_oenb[1]
*192 la1_oenb[20]
*193 la1_oenb[21]
*194 la1_oenb[22]
*195 la1_oenb[23]
*196 la1_oenb[24]
*197 la1_oenb[25]
*198 la1_oenb[26]
*199 la1_oenb[27]
*200 la1_oenb[28]
*201 la1_oenb[29]
*202 la1_oenb[2]
*203 la1_oenb[30]
*204 la1_oenb[31]
*205 la1_oenb[3]
*206 la1_oenb[4]
*207 la1_oenb[5]
*208 la1_oenb[6]
*209 la1_oenb[7]
*210 la1_oenb[8]
*211 la1_oenb[9]
*214 wb_clk_i
*215 _0000_
*216 _0001_
*217 _0002_
*218 _0003_
*219 _0004_
*220 _0005_
*221 _0006_
*222 _0007_
*223 _0008_
*224 _0009_
*225 _0010_
*226 _0011_
*227 _0012_
*228 _0013_
*229 _0014_
*230 _0015_
*231 _0016_
*232 _0017_
*233 _0018_
*234 _0019_
*235 _0020_
*236 _0021_
*237 _0022_
*238 _0023_
*239 _0024_
*240 _0025_
*241 _0026_
*242 _0027_
*243 _0028_
*244 _0029_
*245 _0030_
*246 _0031_
*247 _0032_
*248 _0033_
*249 _0034_
*250 _0035_
*251 _0036_
*252 _0037_
*253 _0038_
*254 _0039_
*255 _0040_
*256 _0041_
*257 _0042_
*258 _0043_
*259 _0044_
*260 _0045_
*261 _0046_
*262 _0047_
*263 _0048_
*264 _0049_
*265 _0050_
*266 _0051_
*267 _0052_
*268 _0053_
*269 _0054_
*270 _0055_
*271 _0056_
*272 _0057_
*273 _0058_
*274 _0059_
*275 _0060_
*276 _0061_
*277 _0062_
*278 _0063_
*279 _0064_
*280 _0065_
*281 _0066_
*282 _0067_
*283 _0068_
*284 _0069_
*285 _0070_
*286 _0071_
*287 _0072_
*288 _0073_
*289 _0074_
*290 _0075_
*291 _0076_
*292 _0077_
*293 _0078_
*294 _0079_
*295 _0080_
*296 _0081_
*297 _0082_
*298 _0083_
*299 _0084_
*300 _0085_
*301 _0086_
*302 _0087_
*303 _0088_
*304 _0089_
*305 _0090_
*306 _0091_
*307 _0092_
*308 _0093_
*309 _0094_
*310 _0095_
*311 _0096_
*312 _0097_
*313 _0098_
*314 _0099_
*315 _0100_
*316 _0101_
*317 _0102_
*318 _0103_
*319 _0104_
*320 _0105_
*321 _0106_
*322 _0107_
*323 _0108_
*324 _0109_
*325 _0110_
*326 _0111_
*327 _0112_
*328 _0113_
*329 _0114_
*330 _0115_
*331 _0116_
*332 _0117_
*333 _0118_
*334 _0119_
*335 _0120_
*336 _0121_
*337 _0122_
*338 _0123_
*339 _0124_
*340 _0125_
*341 _0126_
*342 _0127_
*343 _0128_
*344 _0129_
*345 _0130_
*346 _0131_
*347 _0132_
*348 _0133_
*349 _0134_
*350 _0135_
*351 _0136_
*352 _0137_
*353 _0138_
*354 _0139_
*355 _0140_
*356 _0141_
*357 _0142_
*358 _0143_
*359 _0144_
*360 _0145_
*361 _0146_
*362 _0147_
*363 _0148_
*364 _0149_
*365 _0150_
*366 _0151_
*367 _0152_
*368 _0153_
*369 _0154_
*370 _0155_
*371 _0156_
*372 _0157_
*373 _0158_
*374 _0159_
*375 _0160_
*376 _0161_
*377 _0162_
*378 _0163_
*379 _0164_
*380 _0165_
*381 _0166_
*382 _0167_
*383 _0168_
*384 _0169_
*385 _0170_
*386 _0171_
*387 _0172_
*388 _0173_
*389 _0174_
*390 _0175_
*391 _0176_
*392 _0177_
*393 _0178_
*394 _0179_
*395 _0180_
*396 _0181_
*397 _0182_
*398 _0183_
*399 _0184_
*400 _0185_
*401 _0186_
*402 _0187_
*403 _0188_
*404 _0189_
*405 _0190_
*406 _0191_
*407 _0192_
*408 _0193_
*409 _0194_
*410 _0195_
*411 _0196_
*412 _0197_
*413 _0198_
*414 _0199_
*415 _0200_
*416 _0201_
*417 _0202_
*418 _0203_
*419 _0204_
*420 _0205_
*421 _0206_
*422 _0207_
*423 _0208_
*424 _0209_
*425 _0210_
*426 _0211_
*427 _0212_
*428 _0213_
*429 _0214_
*430 _0215_
*431 _0216_
*432 _0217_
*433 _0218_
*434 _0219_
*435 _0220_
*436 _0221_
*437 _0222_
*438 _0223_
*439 _0224_
*440 _0225_
*441 _0226_
*442 _0227_
*443 _0228_
*444 _0229_
*445 _0230_
*446 _0231_
*447 _0232_
*448 _0233_
*449 _0234_
*450 _0235_
*451 _0236_
*452 _0237_
*453 _0238_
*454 _0239_
*455 _0240_
*456 _0241_
*457 _0242_
*458 _0243_
*459 _0244_
*460 _0245_
*461 _0246_
*462 _0247_
*463 _0248_
*464 _0249_
*465 _0250_
*466 _0251_
*467 _0252_
*468 _0253_
*469 _0254_
*470 _0255_
*471 _0256_
*472 _0257_
*473 _0258_
*474 _0259_
*475 _0260_
*476 _0261_
*477 _0262_
*478 _0263_
*479 _0264_
*480 _0265_
*481 _0266_
*482 _0267_
*483 _0268_
*484 _0269_
*485 _0270_
*486 _0271_
*487 _0272_
*488 _0273_
*489 _0274_
*490 _0275_
*491 _0276_
*492 _0277_
*493 _0278_
*494 _0279_
*495 _0280_
*496 _0281_
*497 _0282_
*498 _0283_
*499 _0284_
*500 _0285_
*501 _0286_
*502 _0287_
*503 _0288_
*504 _0289_
*505 _0290_
*506 _0291_
*507 _0292_
*508 _0293_
*509 _0294_
*510 _0295_
*511 _0296_
*512 _0297_
*513 _0298_
*514 _0299_
*515 _0300_
*516 _0301_
*517 _0302_
*518 _0303_
*519 _0304_
*520 _0305_
*521 _0306_
*522 _0307_
*523 _0308_
*524 _0309_
*525 _0310_
*526 _0311_
*527 _0312_
*528 _0313_
*529 _0314_
*530 _0315_
*531 _0316_
*532 _0317_
*533 _0318_
*534 _0319_
*535 _0320_
*536 _0321_
*537 _0322_
*538 _0323_
*539 _0324_
*540 _0325_
*541 _0326_
*542 _0327_
*543 _0328_
*544 _0329_
*545 _0330_
*546 _0331_
*547 _0332_
*548 _0333_
*549 _0334_
*550 _0335_
*551 _0336_
*552 _0337_
*553 _0338_
*554 _0339_
*555 _0340_
*556 _0341_
*557 _0342_
*558 _0343_
*559 _0344_
*560 _0345_
*561 _0346_
*562 _0347_
*563 _0348_
*564 _0349_
*565 _0350_
*566 _0351_
*567 _0352_
*568 _0353_
*569 _0354_
*570 _0355_
*571 _0356_
*572 _0357_
*573 _0358_
*574 _0359_
*575 _0360_
*576 _0361_
*577 _0362_
*578 _0363_
*579 _0364_
*580 _0365_
*581 _0366_
*582 _0367_
*583 _0368_
*584 _0369_
*585 _0370_
*586 _0371_
*587 _0372_
*588 _0373_
*589 _0374_
*590 _0375_
*591 _0376_
*592 _0377_
*593 _0378_
*594 _0379_
*595 _0380_
*596 _0381_
*597 _0382_
*598 _0383_
*599 _0384_
*600 _0385_
*601 _0386_
*602 _0387_
*603 _0388_
*604 _0389_
*605 _0390_
*606 _0391_
*607 _0392_
*608 _0393_
*609 _0394_
*610 _0395_
*611 _0396_
*612 _0397_
*613 _0398_
*614 _0399_
*615 _0400_
*616 _0401_
*617 _0402_
*618 _0403_
*619 _0404_
*620 _0405_
*621 _0406_
*622 _0407_
*623 _0408_
*624 _0409_
*625 _0410_
*626 _0411_
*627 _0412_
*628 _0413_
*629 _0414_
*630 _0415_
*631 _0416_
*632 _0417_
*633 _0418_
*634 _0419_
*635 _0420_
*636 _0421_
*637 _0422_
*638 _0423_
*639 _0424_
*640 _0425_
*641 _0426_
*642 _0427_
*643 _0428_
*644 _0429_
*645 _0430_
*646 _0431_
*647 _0432_
*648 _0433_
*649 _0434_
*650 _0435_
*651 _0436_
*652 _0437_
*653 _0438_
*654 _0439_
*655 _0440_
*656 _0441_
*657 _0442_
*658 _0443_
*659 _0444_
*660 _0445_
*661 _0446_
*662 _0447_
*663 _0448_
*664 _0449_
*665 _0450_
*666 _0451_
*667 _0452_
*668 _0453_
*669 _0454_
*670 _0455_
*671 _0456_
*672 _0457_
*673 _0458_
*674 _0459_
*675 _0460_
*676 _0461_
*677 _0462_
*678 _0463_
*679 _0464_
*680 _0465_
*681 _0466_
*682 _0467_
*683 _0468_
*684 _0469_
*685 _0470_
*686 _0471_
*687 _0472_
*688 _0473_
*689 _0474_
*690 _0475_
*691 _0476_
*692 _0477_
*693 _0478_
*694 _0479_
*695 _0480_
*696 _0481_
*697 _0482_
*698 _0483_
*699 _0484_
*700 _0485_
*701 _0486_
*702 _0487_
*703 _0488_
*704 _0489_
*705 _0490_
*706 _0491_
*707 _0492_
*708 _0493_
*709 _0494_
*710 _0495_
*711 _0496_
*712 _0497_
*713 _0498_
*714 _0499_
*715 _0500_
*716 _0501_
*717 _0502_
*718 _0503_
*719 _0504_
*720 _0505_
*721 _0506_
*722 _0507_
*723 _0508_
*724 _0509_
*725 _0510_
*726 _0511_
*727 _0512_
*728 _0513_
*729 _0514_
*730 _0515_
*731 _0516_
*732 _0517_
*733 _0518_
*734 _0519_
*735 _0520_
*736 _0521_
*737 _0522_
*738 _0523_
*739 _0524_
*740 _0525_
*741 _0526_
*742 _0527_
*743 _0528_
*744 _0529_
*745 _0530_
*746 _0531_
*747 _0532_
*748 _0533_
*749 _0534_
*750 _0535_
*751 _0536_
*752 _0537_
*753 _0538_
*754 _0539_
*755 _0540_
*756 _0541_
*757 _0542_
*758 _0543_
*759 _0544_
*760 _0545_
*761 _0546_
*762 _0547_
*763 _0548_
*764 _0549_
*765 _0550_
*766 _0551_
*767 _0552_
*768 _0553_
*769 _0554_
*770 _0555_
*771 _0556_
*772 _0557_
*773 _0558_
*774 _0559_
*775 _0560_
*776 _0561_
*777 _0562_
*778 _0563_
*779 _0564_
*780 _0565_
*781 _0566_
*782 _0567_
*783 _0568_
*784 _0569_
*785 _0570_
*786 _0571_
*787 _0572_
*788 _0573_
*789 _0574_
*790 _0575_
*791 _0576_
*792 _0577_
*793 _0578_
*794 _0579_
*795 _0580_
*796 _0581_
*797 _0582_
*798 _0583_
*799 _0584_
*800 _0585_
*801 _0586_
*802 _0587_
*803 _0588_
*804 _0589_
*805 _0590_
*806 _0591_
*807 _0592_
*808 _0593_
*809 _0594_
*810 _0595_
*811 _0596_
*812 _0597_
*813 _0598_
*814 _0599_
*815 _0600_
*816 _0601_
*817 _0602_
*818 _0603_
*819 _0604_
*820 _0605_
*821 _0606_
*822 _0607_
*823 _0608_
*824 _0609_
*825 _0610_
*826 _0611_
*827 _0612_
*828 _0613_
*829 _0614_
*830 _0615_
*831 _0616_
*832 _0617_
*833 _0618_
*834 _0619_
*835 _0620_
*836 _0621_
*837 _0622_
*838 _0623_
*839 _0624_
*840 _0625_
*841 _0626_
*842 _0627_
*843 _0628_
*844 _0629_
*845 _0630_
*846 _0631_
*847 _0632_
*848 _0633_
*849 _0634_
*850 _0635_
*851 _0636_
*852 _0637_
*853 _0638_
*854 _0639_
*855 _0640_
*856 _0641_
*857 _0642_
*858 _0643_
*859 _0644_
*860 _0645_
*861 _0646_
*862 _0647_
*863 _0648_
*864 _0649_
*865 _0650_
*866 _0651_
*867 _0652_
*868 _0653_
*869 _0654_
*870 _0655_
*871 _0656_
*872 _0657_
*873 _0658_
*874 _0659_
*875 _0660_
*876 _0661_
*877 _0662_
*878 _0663_
*879 _0664_
*880 _0665_
*881 _0666_
*882 _0667_
*883 _0668_
*884 _0669_
*885 _0670_
*886 _0671_
*887 _0672_
*888 _0673_
*889 _0674_
*890 _0675_
*891 _0676_
*892 _0677_
*893 _0678_
*894 _0679_
*895 _0680_
*896 _0681_
*897 _0682_
*898 _0683_
*899 _0684_
*900 _0685_
*901 _0686_
*902 _0687_
*903 _0688_
*904 _0689_
*905 _0690_
*906 _0691_
*907 _0692_
*908 _0693_
*909 _0694_
*910 _0695_
*911 _0696_
*912 _0697_
*913 _0698_
*914 _0699_
*915 _0700_
*916 _0701_
*917 _0702_
*918 _0703_
*919 _0704_
*920 _0705_
*921 _0706_
*922 _0707_
*923 _0708_
*924 _0709_
*925 _0710_
*926 _0711_
*927 _0712_
*928 _0713_
*929 _0714_
*930 _0715_
*931 _0716_
*932 _0717_
*933 _0718_
*934 _0719_
*935 _0720_
*936 _0721_
*937 _0722_
*938 _0723_
*939 _0724_
*940 _0725_
*941 _0726_
*942 _0727_
*943 _0728_
*944 _0729_
*945 _0730_
*946 _0731_
*947 _0732_
*948 _0733_
*949 _0734_
*950 _0735_
*951 _0736_
*952 _0737_
*953 _0738_
*954 _0739_
*955 _0740_
*956 _0741_
*957 _0742_
*958 _0743_
*959 _0744_
*960 _0745_
*961 _0746_
*962 _0747_
*963 _0748_
*964 _0749_
*965 _0750_
*966 _0751_
*967 _0752_
*968 _0753_
*969 _0754_
*970 _0755_
*971 _0756_
*972 _0757_
*973 _0758_
*974 _0759_
*975 _0760_
*976 _0761_
*977 _0762_
*978 _0763_
*979 _0764_
*980 _0765_
*981 _0766_
*982 _0767_
*983 _0768_
*984 _0769_
*985 _0770_
*986 _0771_
*987 _0772_
*988 _0773_
*989 _0774_
*990 _0775_
*991 _0776_
*992 _0777_
*993 _0778_
*994 _0779_
*995 _0780_
*996 _0781_
*997 _0782_
*998 _0783_
*999 _0784_
*1000 _0785_
*1001 _0786_
*1002 _0787_
*1003 _0788_
*1004 _0789_
*1005 _0790_
*1006 _0791_
*1007 _0792_
*1008 _0793_
*1009 _0794_
*1010 _0795_
*1011 _0796_
*1012 _0797_
*1013 _0798_
*1014 _0799_
*1015 _0800_
*1016 _0801_
*1017 _0802_
*1018 _0803_
*1019 _0804_
*1020 _0805_
*1021 _0806_
*1022 _0807_
*1023 _0808_
*1024 _0809_
*1025 _0810_
*1026 _0811_
*1027 _0812_
*1028 _0813_
*1029 _0814_
*1030 _0815_
*1031 _0816_
*1032 _0817_
*1033 _0818_
*1034 _0819_
*1035 _0820_
*1036 _0821_
*1037 _0822_
*1038 _0823_
*1039 _0824_
*1040 _0825_
*1041 _0826_
*1042 _0827_
*1043 _0828_
*1044 _0829_
*1045 _0830_
*1046 _0831_
*1047 _0832_
*1048 _0833_
*1049 _0834_
*1050 _0835_
*1051 _0836_
*1052 _0837_
*1053 _0838_
*1054 _0839_
*1055 _0840_
*1056 _0841_
*1057 _0842_
*1058 _0843_
*1059 _0844_
*1060 _0845_
*1061 _0846_
*1062 _0847_
*1063 _0848_
*1064 _0849_
*1065 _0850_
*1066 _0851_
*1067 _0852_
*1068 _0853_
*1069 _0854_
*1070 _0855_
*1071 _0856_
*1072 _0857_
*1073 _0858_
*1074 _0859_
*1075 _0860_
*1076 _0861_
*1077 _0862_
*1078 _0863_
*1079 _0864_
*1080 _0865_
*1081 _0866_
*1082 _0867_
*1083 _0868_
*1084 _0869_
*1085 _0870_
*1086 _0871_
*1087 _0872_
*1088 _0873_
*1089 _0874_
*1090 _0875_
*1091 _0876_
*1092 _0877_
*1093 _0878_
*1094 _0879_
*1095 _0880_
*1096 _0881_
*1097 _0882_
*1098 _0883_
*1099 _0884_
*1100 _0885_
*1101 _0886_
*1102 _0887_
*1103 _0888_
*1104 _0889_
*1105 _0890_
*1106 _0891_
*1107 _0892_
*1108 _0893_
*1109 _0894_
*1110 _0895_
*1111 _0896_
*1112 _0897_
*1113 _0898_
*1114 _0899_
*1115 _0900_
*1116 _0901_
*1117 _0902_
*1118 _0903_
*1119 _0904_
*1120 _0905_
*1121 _0906_
*1122 _0907_
*1123 _0908_
*1124 _0909_
*1125 _0910_
*1126 _0911_
*1127 _0912_
*1128 _0913_
*1129 _0914_
*1130 _0915_
*1131 _0916_
*1132 _0917_
*1133 _0918_
*1134 _0919_
*1135 _0920_
*1136 _0921_
*1137 _0922_
*1138 _0923_
*1139 _0924_
*1140 _0925_
*1141 _0926_
*1142 _0927_
*1143 _0928_
*1144 _0929_
*1145 _0930_
*1146 _0931_
*1147 _0932_
*1148 _0933_
*1149 _0934_
*1150 _0935_
*1151 _0936_
*1152 _0937_
*1153 _0938_
*1154 _0939_
*1155 _0940_
*1156 _0941_
*1157 _0942_
*1158 _0943_
*1159 _0944_
*1160 _0945_
*1161 _0946_
*1162 _0947_
*1163 _0948_
*1164 _0949_
*1165 _0950_
*1166 _0951_
*1167 _0952_
*1168 _0953_
*1169 _0954_
*1170 _0955_
*1171 _0956_
*1172 _0957_
*1173 _0958_
*1174 _0959_
*1175 _0960_
*1176 _0961_
*1177 _0962_
*1178 _0963_
*1179 _0964_
*1180 _0965_
*1181 _0966_
*1182 _0967_
*1183 _0968_
*1184 _0969_
*1185 _0970_
*1186 _0971_
*1187 _0972_
*1188 _0973_
*1189 _0974_
*1190 _0975_
*1191 _0976_
*1192 _0977_
*1193 _0978_
*1194 _0979_
*1195 _0980_
*1196 _0981_
*1197 _0982_
*1198 _0983_
*1199 _0984_
*1200 _0985_
*1201 _0986_
*1202 _0987_
*1203 _0988_
*1204 _0989_
*1205 _0990_
*1206 _0991_
*1207 _0992_
*1208 _0993_
*1209 _0994_
*1210 _0995_
*1211 _0996_
*1212 _0997_
*1213 _0998_
*1214 _0999_
*1215 _1000_
*1216 _1001_
*1217 _1002_
*1218 _1003_
*1219 _1004_
*1220 _1005_
*1221 _1006_
*1222 _1007_
*1223 _1008_
*1224 _1009_
*1225 _1010_
*1226 _1011_
*1227 _1012_
*1228 _1013_
*1229 _1014_
*1230 _1015_
*1231 _1016_
*1232 _1017_
*1233 _1018_
*1234 _1019_
*1235 _1020_
*1236 _1021_
*1237 _1022_
*1238 _1023_
*1239 _1024_
*1240 _1025_
*1241 _1026_
*1242 _1027_
*1243 _1028_
*1244 _1029_
*1245 _1030_
*1246 _1031_
*1247 _1032_
*1248 _1033_
*1249 _1034_
*1250 _1035_
*1251 _1036_
*1252 _1037_
*1253 _1038_
*1254 _1039_
*1255 _1040_
*1256 _1041_
*1257 _1042_
*1258 _1043_
*1259 _1044_
*1260 _1045_
*1261 _1046_
*1262 _1047_
*1263 _1048_
*1264 _1049_
*1265 _1050_
*1266 _1051_
*1267 _1052_
*1268 _1053_
*1269 _1054_
*1270 _1055_
*1271 _1056_
*1272 _1057_
*1273 _1058_
*1274 _1059_
*1275 _1060_
*1276 _1061_
*1277 _1062_
*1278 _1063_
*1279 _1064_
*1280 _1065_
*1281 _1066_
*1282 _1067_
*1283 _1068_
*1284 _1069_
*1285 _1070_
*1286 _1071_
*1287 _1072_
*1288 _1073_
*1289 _1074_
*1290 _1075_
*1291 _1076_
*1292 _1077_
*1293 _1078_
*1294 _1079_
*1295 _1080_
*1296 _1081_
*1297 _1082_
*1298 _1083_
*1299 _1084_
*1300 _1085_
*1301 _1086_
*1302 _1087_
*1303 _1088_
*1304 _1089_
*1305 _1090_
*1306 _1091_
*1307 _1092_
*1308 _1093_
*1309 _1094_
*1310 _1095_
*1311 _1096_
*1312 _1097_
*1313 _1098_
*1314 _1099_
*1315 _1100_
*1316 _1101_
*1317 _1102_
*1318 _1103_
*1319 _1104_
*1320 _1105_
*1321 _1106_
*1322 _1107_
*1323 _1108_
*1324 _1109_
*1325 _1110_
*1326 _1111_
*1327 _1112_
*1328 _1113_
*1329 _1114_
*1330 _1115_
*1331 _1116_
*1332 _1117_
*1333 _1118_
*1334 _1119_
*1335 _1120_
*1336 _1121_
*1337 _1122_
*1338 _1123_
*1339 _1124_
*1340 _1125_
*1341 _1126_
*1342 _1127_
*1343 _1128_
*1344 _1129_
*1345 _1130_
*1346 _1131_
*1347 _1132_
*1348 _1133_
*1349 _1134_
*1350 _1135_
*1351 _1136_
*1352 _1137_
*1353 _1138_
*1354 _1139_
*1355 _1140_
*1356 _1141_
*1357 _1142_
*1358 _1143_
*1359 _1144_
*1360 _1145_
*1361 _1146_
*1362 _1147_
*1363 _1148_
*1364 _1149_
*1365 _1150_
*1366 _1151_
*1367 _1152_
*1368 _1153_
*1369 _1154_
*1370 _1155_
*1371 _1156_
*1372 _1157_
*1373 _1158_
*1374 _1159_
*1375 _1160_
*1376 _1161_
*1377 _1162_
*1378 _1163_
*1379 _1164_
*1380 _1165_
*1381 _1166_
*1382 _1167_
*1383 _1168_
*1384 _1169_
*1385 _1170_
*1386 _1171_
*1387 _1172_
*1388 _1173_
*1389 _1174_
*1390 _1175_
*1391 _1176_
*1392 _1177_
*1393 _1178_
*1394 _1179_
*1395 _1180_
*1396 _1181_
*1397 _1182_
*1398 _1183_
*1399 _1184_
*1400 _1185_
*1401 _1186_
*1402 _1187_
*1403 _1188_
*1404 _1189_
*1405 _1190_
*1406 _1191_
*1407 _1192_
*1408 _1193_
*1409 _1194_
*1410 _1195_
*1411 _1196_
*1412 _1197_
*1413 _1198_
*1414 _1199_
*1415 _1200_
*1416 _1201_
*1417 _1202_
*1418 _1203_
*1419 _1204_
*1420 _1205_
*1421 _1206_
*1422 _1207_
*1423 _1208_
*1424 _1209_
*1425 _1210_
*1426 _1211_
*1427 _1212_
*1428 _1213_
*1429 _1214_
*1430 _1215_
*1431 _1216_
*1432 _1217_
*1433 _1218_
*1434 _1219_
*1435 _1220_
*1436 _1221_
*1437 _1222_
*1438 _1223_
*1439 _1224_
*1440 _1225_
*1441 _1226_
*1442 _1227_
*1443 _1228_
*1444 _1229_
*1445 _1230_
*1446 _1231_
*1447 _1232_
*1448 _1233_
*1449 _1234_
*1450 _1235_
*1451 _1236_
*1452 _1237_
*1453 _1238_
*1454 _1239_
*1455 _1240_
*1456 _1241_
*1457 _1242_
*1458 _1243_
*1459 _1244_
*1460 _1245_
*1461 _1246_
*1462 _1247_
*1463 _1248_
*1464 _1249_
*1465 _1250_
*1466 _1251_
*1467 _1252_
*1468 _1253_
*1469 _1254_
*1470 _1255_
*1471 _1256_
*1472 _1257_
*1473 _1258_
*1474 _1259_
*1475 _1260_
*1476 _1261_
*1477 _1262_
*1478 _1263_
*1479 _1264_
*1480 _1265_
*1481 _1266_
*1482 _1267_
*1483 _1268_
*1484 _1269_
*1485 _1270_
*1486 _1271_
*1487 _1272_
*1488 _1273_
*1489 _1274_
*1490 _1275_
*1491 _1276_
*1492 _1277_
*1493 _1278_
*1494 _1279_
*1495 _1280_
*1496 _1281_
*1497 _1282_
*1498 _1283_
*1499 _1284_
*1500 _1285_
*1501 _1286_
*1502 _1287_
*1503 _1288_
*1504 _1289_
*1505 _1290_
*1506 _1291_
*1507 _1292_
*1508 _1293_
*1509 _1294_
*1510 _1295_
*1511 _1296_
*1512 _1297_
*1513 _1298_
*1514 _1299_
*1515 _1300_
*1516 _1301_
*1517 _1302_
*1518 _1303_
*1519 _1304_
*1520 _1305_
*1521 _1306_
*1522 _1307_
*1523 _1308_
*1524 _1309_
*1525 _1310_
*1526 _1311_
*1527 _1312_
*1528 _1313_
*1529 _1314_
*1530 _1315_
*1531 _1316_
*1532 _1317_
*1533 _1318_
*1534 _1319_
*1535 _1320_
*1536 _1321_
*1537 _1322_
*1538 _1323_
*1539 _1324_
*1540 _1325_
*1541 _1326_
*1542 _1327_
*1543 _1328_
*1544 _1329_
*1545 _1330_
*1546 _1331_
*1547 _1332_
*1548 _1333_
*1549 _1334_
*1550 _1335_
*1551 _1336_
*1552 _1337_
*1553 _1338_
*1554 _1339_
*1555 _1340_
*1556 _1341_
*1557 _1342_
*1558 _1343_
*1559 _1344_
*1560 _1345_
*1561 _1346_
*1562 _1347_
*1563 _1348_
*1564 _1349_
*1565 _1350_
*1566 _1351_
*1567 _1352_
*1568 _1353_
*1569 _1354_
*1570 _1355_
*1571 _1356_
*1572 _1357_
*1573 _1358_
*1574 _1359_
*1575 _1360_
*1576 _1361_
*1577 _1362_
*1578 _1363_
*1579 _1364_
*1580 _1365_
*1581 _1366_
*1582 _1367_
*1583 _1368_
*1584 _1369_
*1585 _1370_
*1586 _1371_
*1587 _1372_
*1588 _1373_
*1589 _1374_
*1590 _1375_
*1591 _1376_
*1592 _1377_
*1593 _1378_
*1594 _1379_
*1595 _1380_
*1596 _1381_
*1597 _1382_
*1598 _1383_
*1599 _1384_
*1600 _1385_
*1601 _1386_
*1602 _1387_
*1603 _1388_
*1604 _1389_
*1605 _1390_
*1606 _1391_
*1607 _1392_
*1608 _1393_
*1609 _1394_
*1610 _1395_
*1611 _1396_
*1612 _1397_
*1613 _1398_
*1614 _1399_
*1615 _1400_
*1616 _1401_
*1617 _1402_
*1618 _1403_
*1619 _1404_
*1620 _1405_
*1621 _1406_
*1622 _1407_
*1623 _1408_
*1624 _1409_
*1625 _1410_
*1626 _1411_
*1627 _1412_
*1628 _1413_
*1629 _1414_
*1630 _1415_
*1631 _1416_
*1632 _1417_
*1633 _1418_
*1634 _1419_
*1635 _1420_
*1636 _1421_
*1637 _1422_
*1638 _1423_
*1639 _1424_
*1640 _1425_
*1641 _1426_
*1642 _1427_
*1643 _1428_
*1644 _1429_
*1645 _1430_
*1646 _1431_
*1647 _1432_
*1648 _1433_
*1649 _1434_
*1650 _1435_
*1651 _1436_
*1652 _1437_
*1653 _1438_
*1654 _1439_
*1655 _1440_
*1656 _1441_
*1657 _1442_
*1658 _1443_
*1659 clknet_0_wb_clk_i
*1660 clknet_2_0__leaf_wb_clk_i
*1661 clknet_2_1__leaf_wb_clk_i
*1662 clknet_2_2__leaf_wb_clk_i
*1663 clknet_2_3__leaf_wb_clk_i
*1664 clknet_leaf_0_wb_clk_i
*1665 clknet_leaf_10_wb_clk_i
*1666 clknet_leaf_11_wb_clk_i
*1667 clknet_leaf_12_wb_clk_i
*1668 clknet_leaf_13_wb_clk_i
*1669 clknet_leaf_14_wb_clk_i
*1670 clknet_leaf_15_wb_clk_i
*1671 clknet_leaf_16_wb_clk_i
*1672 clknet_leaf_17_wb_clk_i
*1673 clknet_leaf_18_wb_clk_i
*1674 clknet_leaf_19_wb_clk_i
*1675 clknet_leaf_1_wb_clk_i
*1676 clknet_leaf_20_wb_clk_i
*1677 clknet_leaf_21_wb_clk_i
*1678 clknet_leaf_22_wb_clk_i
*1679 clknet_leaf_23_wb_clk_i
*1680 clknet_leaf_24_wb_clk_i
*1681 clknet_leaf_25_wb_clk_i
*1682 clknet_leaf_26_wb_clk_i
*1683 clknet_leaf_27_wb_clk_i
*1684 clknet_leaf_28_wb_clk_i
*1685 clknet_leaf_29_wb_clk_i
*1686 clknet_leaf_2_wb_clk_i
*1687 clknet_leaf_30_wb_clk_i
*1688 clknet_leaf_31_wb_clk_i
*1689 clknet_leaf_32_wb_clk_i
*1690 clknet_leaf_33_wb_clk_i
*1691 clknet_leaf_34_wb_clk_i
*1692 clknet_leaf_35_wb_clk_i
*1693 clknet_leaf_36_wb_clk_i
*1694 clknet_leaf_37_wb_clk_i
*1695 clknet_leaf_38_wb_clk_i
*1696 clknet_leaf_3_wb_clk_i
*1697 clknet_leaf_4_wb_clk_i
*1698 clknet_leaf_5_wb_clk_i
*1699 clknet_leaf_6_wb_clk_i
*1700 clknet_leaf_7_wb_clk_i
*1701 clknet_leaf_8_wb_clk_i
*1702 clknet_leaf_9_wb_clk_i
*1703 mbsFSK0\.COUNT\[0\]
*1704 mbsFSK0\.COUNT\[1\]
*1705 mbsFSK0\.COUNT\[2\]
*1706 mbsFSK0\.COUNT\[3\]
*1707 mbsFSK0\.COUNT\[4\]
*1708 mbsFSK0\.COUNT\[5\]
*1709 mbsFSK0\.COUNT\[6\]
*1710 mbsFSK0\.GPIO1
*1711 mbsFSK0\.GPIO2
*1712 mbsFSK0\.LFSR\[0\]
*1713 mbsFSK0\.LFSR\[1\]
*1714 mbsFSK0\.LFSR\[2\]
*1715 mbsFSK0\.LFSR\[3\]
*1716 mbsFSK0\.LFSR\[4\]
*1717 mbsFSK0\.READY
*1718 mbsFSK0\.SHIFT
*1719 mbsFSK0\.prnGen\.RESET
*1720 mbsFSK0\.prnGen\.out\[0\]
*1721 mbsFSK0\.prnGen\.out\[10\]
*1722 mbsFSK0\.prnGen\.out\[11\]
*1723 mbsFSK0\.prnGen\.out\[12\]
*1724 mbsFSK0\.prnGen\.out\[13\]
*1725 mbsFSK0\.prnGen\.out\[1\]
*1726 mbsFSK0\.prnGen\.out\[2\]
*1727 mbsFSK0\.prnGen\.out\[3\]
*1728 mbsFSK0\.prnGen\.out\[4\]
*1729 mbsFSK0\.prnGen\.out\[5\]
*1730 mbsFSK0\.prnGen\.out\[6\]
*1731 mbsFSK0\.prnGen\.out\[7\]
*1732 mbsFSK0\.prnGen\.out\[8\]
*1733 mbsFSK0\.prnGen\.out\[9\]
*1734 mbsFSK0\.reset_d
*1735 mbsFSK0\.symbolLUT\.dataADDR_q\[0\]
*1736 mbsFSK0\.symbolLUT\.dataADDR_q\[1\]
*1737 mbsFSK0\.symbolLUT\.dataADDR_q\[2\]
*1738 mbsFSK0\.symbolLUT\.dataADDR_q\[3\]
*1739 mbsFSK0\.symbolLUT\.dataADDR_q\[4\]
*1740 mbsFSK0\.symbolLUT\.databuffIMAG\[0\]
*1741 mbsFSK0\.symbolLUT\.databuffIMAG\[100\]
*1742 mbsFSK0\.symbolLUT\.databuffIMAG\[101\]
*1743 mbsFSK0\.symbolLUT\.databuffIMAG\[102\]
*1744 mbsFSK0\.symbolLUT\.databuffIMAG\[103\]
*1745 mbsFSK0\.symbolLUT\.databuffIMAG\[104\]
*1746 mbsFSK0\.symbolLUT\.databuffIMAG\[105\]
*1747 mbsFSK0\.symbolLUT\.databuffIMAG\[106\]
*1748 mbsFSK0\.symbolLUT\.databuffIMAG\[107\]
*1749 mbsFSK0\.symbolLUT\.databuffIMAG\[108\]
*1750 mbsFSK0\.symbolLUT\.databuffIMAG\[109\]
*1751 mbsFSK0\.symbolLUT\.databuffIMAG\[10\]
*1752 mbsFSK0\.symbolLUT\.databuffIMAG\[110\]
*1753 mbsFSK0\.symbolLUT\.databuffIMAG\[111\]
*1754 mbsFSK0\.symbolLUT\.databuffIMAG\[112\]
*1755 mbsFSK0\.symbolLUT\.databuffIMAG\[113\]
*1756 mbsFSK0\.symbolLUT\.databuffIMAG\[114\]
*1757 mbsFSK0\.symbolLUT\.databuffIMAG\[115\]
*1758 mbsFSK0\.symbolLUT\.databuffIMAG\[116\]
*1759 mbsFSK0\.symbolLUT\.databuffIMAG\[117\]
*1760 mbsFSK0\.symbolLUT\.databuffIMAG\[118\]
*1761 mbsFSK0\.symbolLUT\.databuffIMAG\[119\]
*1762 mbsFSK0\.symbolLUT\.databuffIMAG\[11\]
*1763 mbsFSK0\.symbolLUT\.databuffIMAG\[120\]
*1764 mbsFSK0\.symbolLUT\.databuffIMAG\[121\]
*1765 mbsFSK0\.symbolLUT\.databuffIMAG\[122\]
*1766 mbsFSK0\.symbolLUT\.databuffIMAG\[123\]
*1767 mbsFSK0\.symbolLUT\.databuffIMAG\[124\]
*1768 mbsFSK0\.symbolLUT\.databuffIMAG\[125\]
*1769 mbsFSK0\.symbolLUT\.databuffIMAG\[126\]
*1770 mbsFSK0\.symbolLUT\.databuffIMAG\[12\]
*1771 mbsFSK0\.symbolLUT\.databuffIMAG\[13\]
*1772 mbsFSK0\.symbolLUT\.databuffIMAG\[14\]
*1773 mbsFSK0\.symbolLUT\.databuffIMAG\[15\]
*1774 mbsFSK0\.symbolLUT\.databuffIMAG\[16\]
*1775 mbsFSK0\.symbolLUT\.databuffIMAG\[17\]
*1776 mbsFSK0\.symbolLUT\.databuffIMAG\[18\]
*1777 mbsFSK0\.symbolLUT\.databuffIMAG\[19\]
*1778 mbsFSK0\.symbolLUT\.databuffIMAG\[1\]
*1779 mbsFSK0\.symbolLUT\.databuffIMAG\[20\]
*1780 mbsFSK0\.symbolLUT\.databuffIMAG\[21\]
*1781 mbsFSK0\.symbolLUT\.databuffIMAG\[22\]
*1782 mbsFSK0\.symbolLUT\.databuffIMAG\[23\]
*1783 mbsFSK0\.symbolLUT\.databuffIMAG\[24\]
*1784 mbsFSK0\.symbolLUT\.databuffIMAG\[25\]
*1785 mbsFSK0\.symbolLUT\.databuffIMAG\[26\]
*1786 mbsFSK0\.symbolLUT\.databuffIMAG\[27\]
*1787 mbsFSK0\.symbolLUT\.databuffIMAG\[28\]
*1788 mbsFSK0\.symbolLUT\.databuffIMAG\[29\]
*1789 mbsFSK0\.symbolLUT\.databuffIMAG\[2\]
*1790 mbsFSK0\.symbolLUT\.databuffIMAG\[30\]
*1791 mbsFSK0\.symbolLUT\.databuffIMAG\[31\]
*1792 mbsFSK0\.symbolLUT\.databuffIMAG\[32\]
*1793 mbsFSK0\.symbolLUT\.databuffIMAG\[33\]
*1794 mbsFSK0\.symbolLUT\.databuffIMAG\[34\]
*1795 mbsFSK0\.symbolLUT\.databuffIMAG\[35\]
*1796 mbsFSK0\.symbolLUT\.databuffIMAG\[36\]
*1797 mbsFSK0\.symbolLUT\.databuffIMAG\[37\]
*1798 mbsFSK0\.symbolLUT\.databuffIMAG\[38\]
*1799 mbsFSK0\.symbolLUT\.databuffIMAG\[39\]
*1800 mbsFSK0\.symbolLUT\.databuffIMAG\[3\]
*1801 mbsFSK0\.symbolLUT\.databuffIMAG\[40\]
*1802 mbsFSK0\.symbolLUT\.databuffIMAG\[41\]
*1803 mbsFSK0\.symbolLUT\.databuffIMAG\[42\]
*1804 mbsFSK0\.symbolLUT\.databuffIMAG\[43\]
*1805 mbsFSK0\.symbolLUT\.databuffIMAG\[44\]
*1806 mbsFSK0\.symbolLUT\.databuffIMAG\[45\]
*1807 mbsFSK0\.symbolLUT\.databuffIMAG\[46\]
*1808 mbsFSK0\.symbolLUT\.databuffIMAG\[47\]
*1809 mbsFSK0\.symbolLUT\.databuffIMAG\[48\]
*1810 mbsFSK0\.symbolLUT\.databuffIMAG\[49\]
*1811 mbsFSK0\.symbolLUT\.databuffIMAG\[4\]
*1812 mbsFSK0\.symbolLUT\.databuffIMAG\[50\]
*1813 mbsFSK0\.symbolLUT\.databuffIMAG\[51\]
*1814 mbsFSK0\.symbolLUT\.databuffIMAG\[52\]
*1815 mbsFSK0\.symbolLUT\.databuffIMAG\[53\]
*1816 mbsFSK0\.symbolLUT\.databuffIMAG\[54\]
*1817 mbsFSK0\.symbolLUT\.databuffIMAG\[55\]
*1818 mbsFSK0\.symbolLUT\.databuffIMAG\[56\]
*1819 mbsFSK0\.symbolLUT\.databuffIMAG\[57\]
*1820 mbsFSK0\.symbolLUT\.databuffIMAG\[58\]
*1821 mbsFSK0\.symbolLUT\.databuffIMAG\[59\]
*1822 mbsFSK0\.symbolLUT\.databuffIMAG\[5\]
*1823 mbsFSK0\.symbolLUT\.databuffIMAG\[60\]
*1824 mbsFSK0\.symbolLUT\.databuffIMAG\[61\]
*1825 mbsFSK0\.symbolLUT\.databuffIMAG\[62\]
*1826 mbsFSK0\.symbolLUT\.databuffIMAG\[63\]
*1827 mbsFSK0\.symbolLUT\.databuffIMAG\[64\]
*1828 mbsFSK0\.symbolLUT\.databuffIMAG\[65\]
*1829 mbsFSK0\.symbolLUT\.databuffIMAG\[66\]
*1830 mbsFSK0\.symbolLUT\.databuffIMAG\[67\]
*1831 mbsFSK0\.symbolLUT\.databuffIMAG\[68\]
*1832 mbsFSK0\.symbolLUT\.databuffIMAG\[69\]
*1833 mbsFSK0\.symbolLUT\.databuffIMAG\[6\]
*1834 mbsFSK0\.symbolLUT\.databuffIMAG\[70\]
*1835 mbsFSK0\.symbolLUT\.databuffIMAG\[71\]
*1836 mbsFSK0\.symbolLUT\.databuffIMAG\[72\]
*1837 mbsFSK0\.symbolLUT\.databuffIMAG\[73\]
*1838 mbsFSK0\.symbolLUT\.databuffIMAG\[74\]
*1839 mbsFSK0\.symbolLUT\.databuffIMAG\[75\]
*1840 mbsFSK0\.symbolLUT\.databuffIMAG\[76\]
*1841 mbsFSK0\.symbolLUT\.databuffIMAG\[77\]
*1842 mbsFSK0\.symbolLUT\.databuffIMAG\[78\]
*1843 mbsFSK0\.symbolLUT\.databuffIMAG\[79\]
*1844 mbsFSK0\.symbolLUT\.databuffIMAG\[7\]
*1845 mbsFSK0\.symbolLUT\.databuffIMAG\[80\]
*1846 mbsFSK0\.symbolLUT\.databuffIMAG\[81\]
*1847 mbsFSK0\.symbolLUT\.databuffIMAG\[82\]
*1848 mbsFSK0\.symbolLUT\.databuffIMAG\[83\]
*1849 mbsFSK0\.symbolLUT\.databuffIMAG\[84\]
*1850 mbsFSK0\.symbolLUT\.databuffIMAG\[85\]
*1851 mbsFSK0\.symbolLUT\.databuffIMAG\[86\]
*1852 mbsFSK0\.symbolLUT\.databuffIMAG\[87\]
*1853 mbsFSK0\.symbolLUT\.databuffIMAG\[88\]
*1854 mbsFSK0\.symbolLUT\.databuffIMAG\[89\]
*1855 mbsFSK0\.symbolLUT\.databuffIMAG\[8\]
*1856 mbsFSK0\.symbolLUT\.databuffIMAG\[90\]
*1857 mbsFSK0\.symbolLUT\.databuffIMAG\[91\]
*1858 mbsFSK0\.symbolLUT\.databuffIMAG\[92\]
*1859 mbsFSK0\.symbolLUT\.databuffIMAG\[93\]
*1860 mbsFSK0\.symbolLUT\.databuffIMAG\[94\]
*1861 mbsFSK0\.symbolLUT\.databuffIMAG\[95\]
*1862 mbsFSK0\.symbolLUT\.databuffIMAG\[96\]
*1863 mbsFSK0\.symbolLUT\.databuffIMAG\[97\]
*1864 mbsFSK0\.symbolLUT\.databuffIMAG\[98\]
*1865 mbsFSK0\.symbolLUT\.databuffIMAG\[99\]